$ -------------------------------------------------------------------- $
$ WAVEWATCH III Ascii boundary input processing                        $
$--------------------------------------------------------------------- $
$
$ Boundary option: READ or WRITE
$
  WRITE 
$
$ Interpolation method: 1: nearest
$                       2: linear interpolation
  1 
$
$ Verbose mode [0-1]
$
  1
$
$ List of spectra files. These ASCII files use the WAVEWATCH III
$ format as described in the ww3_outp.inp file. The files are 
$ defined relative to the directory in which the program is run.
$
boundary_spec_s10_nd80/fp10.3_ncos20_Ndir80_Nf32_X0_Y0_spec.nc
boundary_spec_s10_nd80/fp10.3_ncos20_Ndir80_Nf32_X0_Y1000000_spec.nc
boundary_spec_s10_nd80/fp10.3_ncos20_Ndir80_Nf32_X0_Y100000_spec.nc
boundary_spec_s10_nd80/fp10.3_ncos20_Ndir80_Nf32_X0_Y1050000_spec.nc
boundary_spec_s10_nd80/fp10.3_ncos20_Ndir80_Nf32_X0_Y1100000_spec.nc
boundary_spec_s10_nd80/fp10.3_ncos20_Ndir80_Nf32_X0_Y1150000_spec.nc
boundary_spec_s10_nd80/fp10.3_ncos20_Ndir80_Nf32_X0_Y1200000_spec.nc
boundary_spec_s10_nd80/fp10.3_ncos20_Ndir80_Nf32_X0_Y1250000_spec.nc
boundary_spec_s10_nd80/fp10.3_ncos20_Ndir80_Nf32_X0_Y1300000_spec.nc
boundary_spec_s10_nd80/fp10.3_ncos20_Ndir80_Nf32_X0_Y1350000_spec.nc
boundary_spec_s10_nd80/fp10.3_ncos20_Ndir80_Nf32_X0_Y1400000_spec.nc
boundary_spec_s10_nd80/fp10.3_ncos20_Ndir80_Nf32_X0_Y1450000_spec.nc
boundary_spec_s10_nd80/fp10.3_ncos20_Ndir80_Nf32_X0_Y1500000_spec.nc
boundary_spec_s10_nd80/fp10.3_ncos20_Ndir80_Nf32_X0_Y150000_spec.nc
boundary_spec_s10_nd80/fp10.3_ncos20_Ndir80_Nf32_X0_Y1550000_spec.nc
boundary_spec_s10_nd80/fp10.3_ncos20_Ndir80_Nf32_X0_Y1600000_spec.nc
boundary_spec_s10_nd80/fp10.3_ncos20_Ndir80_Nf32_X0_Y1650000_spec.nc
boundary_spec_s10_nd80/fp10.3_ncos20_Ndir80_Nf32_X0_Y1700000_spec.nc
boundary_spec_s10_nd80/fp10.3_ncos20_Ndir80_Nf32_X0_Y1750000_spec.nc
boundary_spec_s10_nd80/fp10.3_ncos20_Ndir80_Nf32_X0_Y1800000_spec.nc
boundary_spec_s10_nd80/fp10.3_ncos20_Ndir80_Nf32_X0_Y1850000_spec.nc
boundary_spec_s10_nd80/fp10.3_ncos20_Ndir80_Nf32_X0_Y1900000_spec.nc
boundary_spec_s10_nd80/fp10.3_ncos20_Ndir80_Nf32_X0_Y1950000_spec.nc
boundary_spec_s10_nd80/fp10.3_ncos20_Ndir80_Nf32_X0_Y2000000_spec.nc
boundary_spec_s10_nd80/fp10.3_ncos20_Ndir80_Nf32_X0_Y200000_spec.nc
boundary_spec_s10_nd80/fp10.3_ncos20_Ndir80_Nf32_X0_Y2050000_spec.nc
boundary_spec_s10_nd80/fp10.3_ncos20_Ndir80_Nf32_X0_Y2100000_spec.nc
boundary_spec_s10_nd80/fp10.3_ncos20_Ndir80_Nf32_X0_Y2150000_spec.nc
boundary_spec_s10_nd80/fp10.3_ncos20_Ndir80_Nf32_X0_Y2200000_spec.nc
boundary_spec_s10_nd80/fp10.3_ncos20_Ndir80_Nf32_X0_Y2250000_spec.nc
boundary_spec_s10_nd80/fp10.3_ncos20_Ndir80_Nf32_X0_Y2300000_spec.nc
boundary_spec_s10_nd80/fp10.3_ncos20_Ndir80_Nf32_X0_Y2350000_spec.nc
boundary_spec_s10_nd80/fp10.3_ncos20_Ndir80_Nf32_X0_Y2400000_spec.nc
boundary_spec_s10_nd80/fp10.3_ncos20_Ndir80_Nf32_X0_Y2450000_spec.nc
boundary_spec_s10_nd80/fp10.3_ncos20_Ndir80_Nf32_X0_Y2500000_spec.nc
boundary_spec_s10_nd80/fp10.3_ncos20_Ndir80_Nf32_X0_Y250000_spec.nc
boundary_spec_s10_nd80/fp10.3_ncos20_Ndir80_Nf32_X0_Y2550000_spec.nc
boundary_spec_s10_nd80/fp10.3_ncos20_Ndir80_Nf32_X0_Y2600000_spec.nc
boundary_spec_s10_nd80/fp10.3_ncos20_Ndir80_Nf32_X0_Y2650000_spec.nc
boundary_spec_s10_nd80/fp10.3_ncos20_Ndir80_Nf32_X0_Y2700000_spec.nc
boundary_spec_s10_nd80/fp10.3_ncos20_Ndir80_Nf32_X0_Y2750000_spec.nc
boundary_spec_s10_nd80/fp10.3_ncos20_Ndir80_Nf32_X0_Y2800000_spec.nc
boundary_spec_s10_nd80/fp10.3_ncos20_Ndir80_Nf32_X0_Y2850000_spec.nc
boundary_spec_s10_nd80/fp10.3_ncos20_Ndir80_Nf32_X0_Y2900000_spec.nc
boundary_spec_s10_nd80/fp10.3_ncos20_Ndir80_Nf32_X0_Y2950000_spec.nc
boundary_spec_s10_nd80/fp10.3_ncos20_Ndir80_Nf32_X0_Y3000000_spec.nc
boundary_spec_s10_nd80/fp10.3_ncos20_Ndir80_Nf32_X0_Y300000_spec.nc
boundary_spec_s10_nd80/fp10.3_ncos20_Ndir80_Nf32_X0_Y3050000_spec.nc
boundary_spec_s10_nd80/fp10.3_ncos20_Ndir80_Nf32_X0_Y3100000_spec.nc
boundary_spec_s10_nd80/fp10.3_ncos20_Ndir80_Nf32_X0_Y3150000_spec.nc
boundary_spec_s10_nd80/fp10.3_ncos20_Ndir80_Nf32_X0_Y3200000_spec.nc
boundary_spec_s10_nd80/fp10.3_ncos20_Ndir80_Nf32_X0_Y3250000_spec.nc
boundary_spec_s10_nd80/fp10.3_ncos20_Ndir80_Nf32_X0_Y3300000_spec.nc
boundary_spec_s10_nd80/fp10.3_ncos20_Ndir80_Nf32_X0_Y3350000_spec.nc
boundary_spec_s10_nd80/fp10.3_ncos20_Ndir80_Nf32_X0_Y3400000_spec.nc
boundary_spec_s10_nd80/fp10.3_ncos20_Ndir80_Nf32_X0_Y3450000_spec.nc
boundary_spec_s10_nd80/fp10.3_ncos20_Ndir80_Nf32_X0_Y3500000_spec.nc
boundary_spec_s10_nd80/fp10.3_ncos20_Ndir80_Nf32_X0_Y350000_spec.nc
boundary_spec_s10_nd80/fp10.3_ncos20_Ndir80_Nf32_X0_Y3550000_spec.nc
boundary_spec_s10_nd80/fp10.3_ncos20_Ndir80_Nf32_X0_Y3600000_spec.nc
boundary_spec_s10_nd80/fp10.3_ncos20_Ndir80_Nf32_X0_Y3650000_spec.nc
boundary_spec_s10_nd80/fp10.3_ncos20_Ndir80_Nf32_X0_Y3700000_spec.nc
boundary_spec_s10_nd80/fp10.3_ncos20_Ndir80_Nf32_X0_Y3750000_spec.nc
boundary_spec_s10_nd80/fp10.3_ncos20_Ndir80_Nf32_X0_Y3800000_spec.nc
boundary_spec_s10_nd80/fp10.3_ncos20_Ndir80_Nf32_X0_Y3850000_spec.nc
boundary_spec_s10_nd80/fp10.3_ncos20_Ndir80_Nf32_X0_Y3900000_spec.nc
boundary_spec_s10_nd80/fp10.3_ncos20_Ndir80_Nf32_X0_Y3950000_spec.nc
boundary_spec_s10_nd80/fp10.3_ncos20_Ndir80_Nf32_X0_Y4000000_spec.nc
boundary_spec_s10_nd80/fp10.3_ncos20_Ndir80_Nf32_X0_Y400000_spec.nc
boundary_spec_s10_nd80/fp10.3_ncos20_Ndir80_Nf32_X0_Y4050000_spec.nc
boundary_spec_s10_nd80/fp10.3_ncos20_Ndir80_Nf32_X0_Y4100000_spec.nc
boundary_spec_s10_nd80/fp10.3_ncos20_Ndir80_Nf32_X0_Y4150000_spec.nc
boundary_spec_s10_nd80/fp10.3_ncos20_Ndir80_Nf32_X0_Y4200000_spec.nc
boundary_spec_s10_nd80/fp10.3_ncos20_Ndir80_Nf32_X0_Y4250000_spec.nc
boundary_spec_s10_nd80/fp10.3_ncos20_Ndir80_Nf32_X0_Y4300000_spec.nc
boundary_spec_s10_nd80/fp10.3_ncos20_Ndir80_Nf32_X0_Y4350000_spec.nc
boundary_spec_s10_nd80/fp10.3_ncos20_Ndir80_Nf32_X0_Y4400000_spec.nc
boundary_spec_s10_nd80/fp10.3_ncos20_Ndir80_Nf32_X0_Y4450000_spec.nc
boundary_spec_s10_nd80/fp10.3_ncos20_Ndir80_Nf32_X0_Y4500000_spec.nc
boundary_spec_s10_nd80/fp10.3_ncos20_Ndir80_Nf32_X0_Y450000_spec.nc
boundary_spec_s10_nd80/fp10.3_ncos20_Ndir80_Nf32_X0_Y4550000_spec.nc
boundary_spec_s10_nd80/fp10.3_ncos20_Ndir80_Nf32_X0_Y4600000_spec.nc
boundary_spec_s10_nd80/fp10.3_ncos20_Ndir80_Nf32_X0_Y4650000_spec.nc
boundary_spec_s10_nd80/fp10.3_ncos20_Ndir80_Nf32_X0_Y4700000_spec.nc
boundary_spec_s10_nd80/fp10.3_ncos20_Ndir80_Nf32_X0_Y4750000_spec.nc
boundary_spec_s10_nd80/fp10.3_ncos20_Ndir80_Nf32_X0_Y4800000_spec.nc
boundary_spec_s10_nd80/fp10.3_ncos20_Ndir80_Nf32_X0_Y4850000_spec.nc
boundary_spec_s10_nd80/fp10.3_ncos20_Ndir80_Nf32_X0_Y4900000_spec.nc
boundary_spec_s10_nd80/fp10.3_ncos20_Ndir80_Nf32_X0_Y4950000_spec.nc
boundary_spec_s10_nd80/fp10.3_ncos20_Ndir80_Nf32_X0_Y5000000_spec.nc
boundary_spec_s10_nd80/fp10.3_ncos20_Ndir80_Nf32_X0_Y500000_spec.nc
boundary_spec_s10_nd80/fp10.3_ncos20_Ndir80_Nf32_X0_Y50000_spec.nc
boundary_spec_s10_nd80/fp10.3_ncos20_Ndir80_Nf32_X0_Y5050000_spec.nc
boundary_spec_s10_nd80/fp10.3_ncos20_Ndir80_Nf32_X0_Y5100000_spec.nc
boundary_spec_s10_nd80/fp10.3_ncos20_Ndir80_Nf32_X0_Y5150000_spec.nc
boundary_spec_s10_nd80/fp10.3_ncos20_Ndir80_Nf32_X0_Y5200000_spec.nc
boundary_spec_s10_nd80/fp10.3_ncos20_Ndir80_Nf32_X0_Y5250000_spec.nc
boundary_spec_s10_nd80/fp10.3_ncos20_Ndir80_Nf32_X0_Y5300000_spec.nc
boundary_spec_s10_nd80/fp10.3_ncos20_Ndir80_Nf32_X0_Y5350000_spec.nc
boundary_spec_s10_nd80/fp10.3_ncos20_Ndir80_Nf32_X0_Y5400000_spec.nc
boundary_spec_s10_nd80/fp10.3_ncos20_Ndir80_Nf32_X0_Y5450000_spec.nc
boundary_spec_s10_nd80/fp10.3_ncos20_Ndir80_Nf32_X0_Y5500000_spec.nc
boundary_spec_s10_nd80/fp10.3_ncos20_Ndir80_Nf32_X0_Y550000_spec.nc
boundary_spec_s10_nd80/fp10.3_ncos20_Ndir80_Nf32_X0_Y5550000_spec.nc
boundary_spec_s10_nd80/fp10.3_ncos20_Ndir80_Nf32_X0_Y5600000_spec.nc
boundary_spec_s10_nd80/fp10.3_ncos20_Ndir80_Nf32_X0_Y5650000_spec.nc
boundary_spec_s10_nd80/fp10.3_ncos20_Ndir80_Nf32_X0_Y5700000_spec.nc
boundary_spec_s10_nd80/fp10.3_ncos20_Ndir80_Nf32_X0_Y5750000_spec.nc
boundary_spec_s10_nd80/fp10.3_ncos20_Ndir80_Nf32_X0_Y5800000_spec.nc
boundary_spec_s10_nd80/fp10.3_ncos20_Ndir80_Nf32_X0_Y5850000_spec.nc
boundary_spec_s10_nd80/fp10.3_ncos20_Ndir80_Nf32_X0_Y5900000_spec.nc
boundary_spec_s10_nd80/fp10.3_ncos20_Ndir80_Nf32_X0_Y5950000_spec.nc
boundary_spec_s10_nd80/fp10.3_ncos20_Ndir80_Nf32_X0_Y6000000_spec.nc
boundary_spec_s10_nd80/fp10.3_ncos20_Ndir80_Nf32_X0_Y600000_spec.nc
boundary_spec_s10_nd80/fp10.3_ncos20_Ndir80_Nf32_X0_Y6050000_spec.nc
boundary_spec_s10_nd80/fp10.3_ncos20_Ndir80_Nf32_X0_Y6100000_spec.nc
boundary_spec_s10_nd80/fp10.3_ncos20_Ndir80_Nf32_X0_Y6150000_spec.nc
boundary_spec_s10_nd80/fp10.3_ncos20_Ndir80_Nf32_X0_Y6200000_spec.nc
boundary_spec_s10_nd80/fp10.3_ncos20_Ndir80_Nf32_X0_Y6250000_spec.nc
boundary_spec_s10_nd80/fp10.3_ncos20_Ndir80_Nf32_X0_Y6300000_spec.nc
boundary_spec_s10_nd80/fp10.3_ncos20_Ndir80_Nf32_X0_Y6350000_spec.nc
boundary_spec_s10_nd80/fp10.3_ncos20_Ndir80_Nf32_X0_Y6400000_spec.nc
boundary_spec_s10_nd80/fp10.3_ncos20_Ndir80_Nf32_X0_Y6450000_spec.nc
boundary_spec_s10_nd80/fp10.3_ncos20_Ndir80_Nf32_X0_Y6500000_spec.nc
boundary_spec_s10_nd80/fp10.3_ncos20_Ndir80_Nf32_X0_Y650000_spec.nc
boundary_spec_s10_nd80/fp10.3_ncos20_Ndir80_Nf32_X0_Y6550000_spec.nc
boundary_spec_s10_nd80/fp10.3_ncos20_Ndir80_Nf32_X0_Y6600000_spec.nc
boundary_spec_s10_nd80/fp10.3_ncos20_Ndir80_Nf32_X0_Y6650000_spec.nc
boundary_spec_s10_nd80/fp10.3_ncos20_Ndir80_Nf32_X0_Y6700000_spec.nc
boundary_spec_s10_nd80/fp10.3_ncos20_Ndir80_Nf32_X0_Y6750000_spec.nc
boundary_spec_s10_nd80/fp10.3_ncos20_Ndir80_Nf32_X0_Y6800000_spec.nc
boundary_spec_s10_nd80/fp10.3_ncos20_Ndir80_Nf32_X0_Y6850000_spec.nc
boundary_spec_s10_nd80/fp10.3_ncos20_Ndir80_Nf32_X0_Y6900000_spec.nc
boundary_spec_s10_nd80/fp10.3_ncos20_Ndir80_Nf32_X0_Y6950000_spec.nc
boundary_spec_s10_nd80/fp10.3_ncos20_Ndir80_Nf32_X0_Y7000000_spec.nc
boundary_spec_s10_nd80/fp10.3_ncos20_Ndir80_Nf32_X0_Y700000_spec.nc
boundary_spec_s10_nd80/fp10.3_ncos20_Ndir80_Nf32_X0_Y7050000_spec.nc
boundary_spec_s10_nd80/fp10.3_ncos20_Ndir80_Nf32_X0_Y7100000_spec.nc
boundary_spec_s10_nd80/fp10.3_ncos20_Ndir80_Nf32_X0_Y7150000_spec.nc
boundary_spec_s10_nd80/fp10.3_ncos20_Ndir80_Nf32_X0_Y7200000_spec.nc
boundary_spec_s10_nd80/fp10.3_ncos20_Ndir80_Nf32_X0_Y7250000_spec.nc
boundary_spec_s10_nd80/fp10.3_ncos20_Ndir80_Nf32_X0_Y7300000_spec.nc
boundary_spec_s10_nd80/fp10.3_ncos20_Ndir80_Nf32_X0_Y7350000_spec.nc
boundary_spec_s10_nd80/fp10.3_ncos20_Ndir80_Nf32_X0_Y7400000_spec.nc
boundary_spec_s10_nd80/fp10.3_ncos20_Ndir80_Nf32_X0_Y7450000_spec.nc
boundary_spec_s10_nd80/fp10.3_ncos20_Ndir80_Nf32_X0_Y7500000_spec.nc
boundary_spec_s10_nd80/fp10.3_ncos20_Ndir80_Nf32_X0_Y750000_spec.nc
boundary_spec_s10_nd80/fp10.3_ncos20_Ndir80_Nf32_X0_Y7550000_spec.nc
boundary_spec_s10_nd80/fp10.3_ncos20_Ndir80_Nf32_X0_Y7600000_spec.nc
boundary_spec_s10_nd80/fp10.3_ncos20_Ndir80_Nf32_X0_Y7650000_spec.nc
boundary_spec_s10_nd80/fp10.3_ncos20_Ndir80_Nf32_X0_Y7700000_spec.nc
boundary_spec_s10_nd80/fp10.3_ncos20_Ndir80_Nf32_X0_Y7750000_spec.nc
boundary_spec_s10_nd80/fp10.3_ncos20_Ndir80_Nf32_X0_Y7800000_spec.nc
boundary_spec_s10_nd80/fp10.3_ncos20_Ndir80_Nf32_X0_Y7850000_spec.nc
boundary_spec_s10_nd80/fp10.3_ncos20_Ndir80_Nf32_X0_Y7900000_spec.nc
boundary_spec_s10_nd80/fp10.3_ncos20_Ndir80_Nf32_X0_Y7950000_spec.nc
boundary_spec_s10_nd80/fp10.3_ncos20_Ndir80_Nf32_X0_Y8000000_spec.nc
boundary_spec_s10_nd80/fp10.3_ncos20_Ndir80_Nf32_X0_Y800000_spec.nc
boundary_spec_s10_nd80/fp10.3_ncos20_Ndir80_Nf32_X0_Y8050000_spec.nc
boundary_spec_s10_nd80/fp10.3_ncos20_Ndir80_Nf32_X0_Y8100000_spec.nc
boundary_spec_s10_nd80/fp10.3_ncos20_Ndir80_Nf32_X0_Y8150000_spec.nc
boundary_spec_s10_nd80/fp10.3_ncos20_Ndir80_Nf32_X0_Y8200000_spec.nc
boundary_spec_s10_nd80/fp10.3_ncos20_Ndir80_Nf32_X0_Y8250000_spec.nc
boundary_spec_s10_nd80/fp10.3_ncos20_Ndir80_Nf32_X0_Y8300000_spec.nc
boundary_spec_s10_nd80/fp10.3_ncos20_Ndir80_Nf32_X0_Y8350000_spec.nc
boundary_spec_s10_nd80/fp10.3_ncos20_Ndir80_Nf32_X0_Y8400000_spec.nc
boundary_spec_s10_nd80/fp10.3_ncos20_Ndir80_Nf32_X0_Y8450000_spec.nc
boundary_spec_s10_nd80/fp10.3_ncos20_Ndir80_Nf32_X0_Y8500000_spec.nc
boundary_spec_s10_nd80/fp10.3_ncos20_Ndir80_Nf32_X0_Y850000_spec.nc
boundary_spec_s10_nd80/fp10.3_ncos20_Ndir80_Nf32_X0_Y8550000_spec.nc
boundary_spec_s10_nd80/fp10.3_ncos20_Ndir80_Nf32_X0_Y8600000_spec.nc
boundary_spec_s10_nd80/fp10.3_ncos20_Ndir80_Nf32_X0_Y8650000_spec.nc
boundary_spec_s10_nd80/fp10.3_ncos20_Ndir80_Nf32_X0_Y8700000_spec.nc
boundary_spec_s10_nd80/fp10.3_ncos20_Ndir80_Nf32_X0_Y8750000_spec.nc
boundary_spec_s10_nd80/fp10.3_ncos20_Ndir80_Nf32_X0_Y8800000_spec.nc
boundary_spec_s10_nd80/fp10.3_ncos20_Ndir80_Nf32_X0_Y8850000_spec.nc
boundary_spec_s10_nd80/fp10.3_ncos20_Ndir80_Nf32_X0_Y8900000_spec.nc
boundary_spec_s10_nd80/fp10.3_ncos20_Ndir80_Nf32_X0_Y8950000_spec.nc
boundary_spec_s10_nd80/fp10.3_ncos20_Ndir80_Nf32_X0_Y9000000_spec.nc
boundary_spec_s10_nd80/fp10.3_ncos20_Ndir80_Nf32_X0_Y900000_spec.nc
boundary_spec_s10_nd80/fp10.3_ncos20_Ndir80_Nf32_X0_Y9050000_spec.nc
boundary_spec_s10_nd80/fp10.3_ncos20_Ndir80_Nf32_X0_Y9100000_spec.nc
boundary_spec_s10_nd80/fp10.3_ncos20_Ndir80_Nf32_X0_Y9150000_spec.nc
boundary_spec_s10_nd80/fp10.3_ncos20_Ndir80_Nf32_X0_Y9200000_spec.nc
boundary_spec_s10_nd80/fp10.3_ncos20_Ndir80_Nf32_X0_Y9250000_spec.nc
boundary_spec_s10_nd80/fp10.3_ncos20_Ndir80_Nf32_X0_Y9300000_spec.nc
boundary_spec_s10_nd80/fp10.3_ncos20_Ndir80_Nf32_X0_Y9350000_spec.nc
boundary_spec_s10_nd80/fp10.3_ncos20_Ndir80_Nf32_X0_Y9400000_spec.nc
boundary_spec_s10_nd80/fp10.3_ncos20_Ndir80_Nf32_X0_Y9450000_spec.nc
boundary_spec_s10_nd80/fp10.3_ncos20_Ndir80_Nf32_X0_Y9500000_spec.nc
boundary_spec_s10_nd80/fp10.3_ncos20_Ndir80_Nf32_X0_Y950000_spec.nc
boundary_spec_s10_nd80/fp10.3_ncos20_Ndir80_Nf32_X0_Y9550000_spec.nc
boundary_spec_s10_nd80/fp10.3_ncos20_Ndir80_Nf32_X0_Y9600000_spec.nc
boundary_spec_s10_nd80/fp10.3_ncos20_Ndir80_Nf32_X0_Y9650000_spec.nc
boundary_spec_s10_nd80/fp10.3_ncos20_Ndir80_Nf32_X0_Y9700000_spec.nc
boundary_spec_s10_nd80/fp10.3_ncos20_Ndir80_Nf32_X0_Y9750000_spec.nc
boundary_spec_s10_nd80/fp10.3_ncos20_Ndir80_Nf32_X0_Y9800000_spec.nc
boundary_spec_s10_nd80/fp10.3_ncos20_Ndir80_Nf32_X0_Y9850000_spec.nc
boundary_spec_s10_nd80/fp10.3_ncos20_Ndir80_Nf32_X0_Y9900000_spec.nc
boundary_spec_s10_nd80/fp10.3_ncos20_Ndir80_Nf32_X0_Y9950000_spec.nc
'STOPSTRING'
$
$ -------------------------------------------------------------------- $
$ End of input file                                                    $
$ -------------------------------------------------------------------- $
